************** Power Discrete Bipolar Electrical Model ********************
** Product: FMB3906
** Package: SuperSOT-6 
** PNP Multi-chip general purpose amplifier
** The model is available for C1-B1-E1, C2-B2-E2, respectively.
**------------------------------------------------------------------------

.MODEL FMB3906 pnp 
+ IS     = 1.34896E-14     BF     = 195.6           NF     = 1                  
+ BR     = 11.4            NR     = 1.08173         ISE    = 5.24807E-14        
+ NE     = 1.5             ISC    = 9.01764E-13     NC     = 1.5                
+ VAF    = 18.7            VAR    = 20              IKF    = 0.0882             
+ IKR    = 0.0229087       RB     = 12.5            RBM    = 10                 
+ IRB    = 2.51189E-5      RE     = 0.18            RC     = 1.3                
+ CJE    = 8.032025E-12    VJE    = 0.7118251       MJE    = 0.3042244          
+ FC     = 0.5             CJC    = 1.005229E-11    VJC    = 0.8414405          
+ MJC    = 0.5             TF     = 1.793E-10       ITF    = 0.4
+ VTF    = 4.0             XTF    = 6               TR     = 3.342E-8
+ XTB    = 1.88            EG     = 1.1             XTI    = 3

**------------------------------------------------------------------------                                                                             
** Creation: Aug.-19-2005
** Fairchild Semiconductor


